data_1
_audit_creation_date              2022-10-17
_audit_creation_method            'Materials Studio'
_symmetry_space_group_name_H-M    'P1'
_symmetry_Int_Tables_number       1
_symmetry_cell_setting            triclinic
loop_
_symmetry_equiv_pos_as_xyz
  x,y,z
_cell_length_a                    26.8771
_cell_length_b                    26.8771
_cell_length_c                    30.6751
_cell_angle_alpha                 90.0000
_cell_angle_beta                  90.0000
_cell_angle_gamma                 120.0000
loop_
_atom_site_label
_atom_site_type_symbol
_atom_site_fract_x
_atom_site_fract_y
_atom_site_fract_z
_atom_site_U_iso_or_equiv
_atom_site_adp_type
_atom_site_occupancy
Si1    Si    0.19790   0.09743   0.46980   0.00000  Uiso   1.00
Si2    Si    0.14480   0.14254   0.36866   0.00000  Uiso   1.00
Si3    Si    0.23763   0.04376   0.33886   0.00000  Uiso   1.00
Si4    Si    0.32667   0.09340   0.46975   0.00000  Uiso   1.00
Si5    Si    0.28667   0.14173   0.35523   0.00000  Uiso   1.00
Si6    Si    0.38114   0.04570   0.34318   0.00000  Uiso   1.00
Si7    Si    0.28702   0.14203   0.43144   0.00000  Uiso   1.00
Si8    Si    0.48407   0.09427   0.46934   0.00000  Uiso   1.00
Si9    Si    0.42877   0.14064   0.36996   0.00000  Uiso   1.00
Si10   Si    0.52344   0.04365   0.33874   0.00000  Uiso   1.00
Si11   Si    0.42729   0.13874   0.44948   0.00000  Uiso   1.00
Si12   Si    0.61358   0.09425   0.46936   0.00000  Uiso   1.00
Si13   Si    0.57246   0.14162   0.35477   0.00000  Uiso   1.00
Si14   Si    0.66787   0.04585   0.34318   0.00000  Uiso   1.00
Si15   Si    0.57277   0.14211   0.43076   0.00000  Uiso   1.00
Si16   Si    0.77003   0.09340   0.46978   0.00000  Uiso   1.00
Si17   Si    0.71524   0.14077   0.37001   0.00000  Uiso   1.00
Si18   Si    0.80938   0.04376   0.33887   0.00000  Uiso   1.00
Si19   Si    0.71486   0.13882   0.44955   0.00000  Uiso   1.00
Si20   Si    0.90278   0.09745   0.46982   0.00000  Uiso   1.00
Si21   Si    0.85835   0.14174   0.35516   0.00000  Uiso   1.00
Si22   Si    0.95376   0.04646   0.34357   0.00000  Uiso   1.00
Si23   Si    0.85828   0.14200   0.43137   0.00000  Uiso   1.00
Si24   Si    0.00103   0.14252   0.36869   0.00000  Uiso   1.00
Si25   Si    0.09588   0.04651   0.34360   0.00000  Uiso   1.00
Si26   Si    0.14412   0.28488   0.35503   0.00000  Uiso   1.00
Si27   Si    0.23779   0.19079   0.33889   0.00000  Uiso   1.00
Si28   Si    0.32668   0.23024   0.46984   0.00000  Uiso   1.00
Si29   Si    0.28493   0.28328   0.36931   0.00000  Uiso   1.00
Si30   Si    0.38511   0.19103   0.34080   0.00000  Uiso   1.00
Si31   Si    0.47322   0.23503   0.47487   0.00000  Uiso   1.00
Si32   Si    0.42871   0.28502   0.36994   0.00000  Uiso   1.00
Si33   Si    0.52277   0.19058   0.34067   0.00000  Uiso   1.00
Si34   Si    0.42726   0.28536   0.44946   0.00000  Uiso   1.00
Si35   Si    0.61719   0.23102   0.46837   0.00000  Uiso   1.00
Si36   Si    0.57255   0.28466   0.36963   0.00000  Uiso   1.00
Si37   Si    0.67112   0.19068   0.34067   0.00000  Uiso   1.00
Si38   Si    0.56866   0.28277   0.44917   0.00000  Uiso   1.00
Si39   Si    0.76515   0.23511   0.47489   0.00000  Uiso   1.00
Si40   Si    0.71542   0.28478   0.36959   0.00000  Uiso   1.00
Si41   Si    0.80921   0.19105   0.34080   0.00000  Uiso   1.00
Si42   Si    0.71742   0.28279   0.44912   0.00000  Uiso   1.00
Si43   Si    0.90684   0.23023   0.46979   0.00000  Uiso   1.00
Si44   Si    0.85953   0.28502   0.37001   0.00000  Uiso   1.00
Si45   Si    0.95633   0.19078   0.33888   0.00000  Uiso   1.00
Si46   Si    0.86143   0.28540   0.44954   0.00000  Uiso   1.00
Si47   Si    0.00163   0.28327   0.36929   0.00000  Uiso   1.00
Si48   Si    0.09492   0.18654   0.33985   0.00000  Uiso   1.00
Si49   Si    0.14465   0.42759   0.36990   0.00000  Uiso   1.00
Si50   Si    0.24230   0.33436   0.34007   0.00000  Uiso   1.00
Si51   Si    0.28630   0.42763   0.36994   0.00000  Uiso   1.00
Si52   Si    0.38120   0.33246   0.34317   0.00000  Uiso   1.00
Si53   Si    0.48409   0.38663   0.46933   0.00000  Uiso   1.00
Si54   Si    0.43065   0.42881   0.36868   0.00000  Uiso   1.00
Si55   Si    0.52275   0.32897   0.34069   0.00000  Uiso   1.00
Si56   Si    0.61727   0.38301   0.46846   0.00000  Uiso   1.00
Si57   Si    0.57256   0.42762   0.35482   0.00000  Uiso   1.00
Si58   Si    0.66781   0.33244   0.34243   0.00000  Uiso   1.00
Si59   Si    0.57283   0.42743   0.43082   0.00000  Uiso   1.00
Si60   Si    0.76922   0.38302   0.46833   0.00000  Uiso   1.00
Si61   Si    0.71554   0.42769   0.36963   0.00000  Uiso   1.00
Si62   Si    0.80954   0.32905   0.34068   0.00000  Uiso   1.00
Si63   Si    0.71749   0.43155   0.44917   0.00000  Uiso   1.00
Si64   Si    0.90601   0.38669   0.46937   0.00000  Uiso   1.00
Si65   Si    0.85856   0.42771   0.35477   0.00000  Uiso   1.00
Si66   Si    0.95445   0.33240   0.34318   0.00000  Uiso   1.00
Si67   Si    0.85817   0.42751   0.43077   0.00000  Uiso   1.00
Si68   Si    0.00151   0.42875   0.36865   0.00000  Uiso   1.00
Si69   Si    0.09534   0.33428   0.34004   0.00000  Uiso   1.00
Si70   Si    0.14443   0.57066   0.35402   0.00000  Uiso   1.00
Si71   Si    0.23916   0.47499   0.34194   0.00000  Uiso   1.00
Si72   Si    0.28635   0.56941   0.36979   0.00000  Uiso   1.00
Si73   Si    0.37976   0.47202   0.34002   0.00000  Uiso   1.00
Si74   Si    0.42951   0.57069   0.35397   0.00000  Uiso   1.00
Si75   Si    0.52363   0.47664   0.33875   0.00000  Uiso   1.00
Si76   Si    0.61364   0.51616   0.46936   0.00000  Uiso   1.00
Si77   Si    0.57145   0.56962   0.36869   0.00000  Uiso   1.00
Si78   Si    0.67119   0.47745   0.34068   0.00000  Uiso   1.00
Si79   Si    0.76524   0.52698   0.47484   0.00000  Uiso   1.00
Si80   Si    0.71520   0.57148   0.36994   0.00000  Uiso   1.00
Si81   Si    0.80963   0.47744   0.34068   0.00000  Uiso   1.00
Si82   Si    0.71489   0.57295   0.44947   0.00000  Uiso   1.00
Si83   Si    0.90599   0.51618   0.46938   0.00000  Uiso   1.00
Si84   Si    0.85961   0.57144   0.36997   0.00000  Uiso   1.00
Si85   Si    0.95652   0.47674   0.33874   0.00000  Uiso   1.00
Si86   Si    0.86154   0.57298   0.44949   0.00000  Uiso   1.00
Si87   Si    0.00153   0.56970   0.36868   0.00000  Uiso   1.00
Si88   Si    0.09558   0.47198   0.34001   0.00000  Uiso   1.00
Si89   Si    0.14463   0.71393   0.36995   0.00000  Uiso   1.00
Si90   Si    0.24312   0.62006   0.34044   0.00000  Uiso   1.00
Si91   Si    0.28631   0.71391   0.36985   0.00000  Uiso   1.00
Si92   Si    0.38020   0.62007   0.34042   0.00000  Uiso   1.00
Si93   Si    0.43086   0.71391   0.36982   0.00000  Uiso   1.00
Si94   Si    0.52819   0.62046   0.34002   0.00000  Uiso   1.00
Si95   Si    0.57258   0.71390   0.36997   0.00000  Uiso   1.00
Si96   Si    0.66782   0.61906   0.34316   0.00000  Uiso   1.00
Si97   Si    0.77005   0.67355   0.46979   0.00000  Uiso   1.00
Si98   Si    0.71697   0.71531   0.36931   0.00000  Uiso   1.00
Si99   Si    0.80920   0.61505   0.34080   0.00000  Uiso   1.00
Si100  Si    0.90692   0.67359   0.46978   0.00000  Uiso   1.00
Si101  Si    0.85847   0.71349   0.35522   0.00000  Uiso   1.00
Si102  Si    0.95453   0.61908   0.34316   0.00000  Uiso   1.00
Si103  Si    0.85828   0.71322   0.43142   0.00000  Uiso   1.00
Si104  Si    0.00170   0.71535   0.36925   0.00000  Uiso   1.00
Si105  Si    0.09561   0.62051   0.33999   0.00000  Uiso   1.00
Si106  Si    0.14409   0.85609   0.35511   0.00000  Uiso   1.00
Si107  Si    0.23911   0.76112   0.34197   0.00000  Uiso   1.00
Si108  Si    0.28627   0.85559   0.36995   0.00000  Uiso   1.00
Si109  Si    0.38017   0.75710   0.34045   0.00000  Uiso   1.00
Si110  Si    0.42956   0.85580   0.35403   0.00000  Uiso   1.00
Si111  Si    0.52526   0.76107   0.34195   0.00000  Uiso   1.00
Si112  Si    0.57261   0.85558   0.36990   0.00000  Uiso   1.00
Si113  Si    0.66584   0.75791   0.34008   0.00000  Uiso   1.00
Si114  Si    0.71528   0.85607   0.35508   0.00000  Uiso   1.00
Si115  Si    0.80946   0.76242   0.33890   0.00000  Uiso   1.00
Si116  Si    0.90285   0.80232   0.46976   0.00000  Uiso   1.00
Si117  Si    0.85772   0.85541   0.36868   0.00000  Uiso   1.00
Si118  Si    0.95644   0.76257   0.33886   0.00000  Uiso   1.00
Si119  Si    0.00106   0.85554   0.36862   0.00000  Uiso   1.00
Si120  Si    0.09538   0.75795   0.34004   0.00000  Uiso   1.00
Si121  Si    0.14466   0.99918   0.36863   0.00000  Uiso   1.00
Si122  Si    0.24224   0.90484   0.34003   0.00000  Uiso   1.00
Si123  Si    0.28485   0.99852   0.36926   0.00000  Uiso   1.00
Si124  Si    0.37969   0.90461   0.34000   0.00000  Uiso   1.00
Si125  Si    0.43049   0.99867   0.36868   0.00000  Uiso   1.00
Si126  Si    0.52823   0.90465   0.33999   0.00000  Uiso   1.00
Si127  Si    0.57148   0.99872   0.36865   0.00000  Uiso   1.00
Si128  Si    0.66590   0.90487   0.34004   0.00000  Uiso   1.00
Si129  Si    0.71693   0.99857   0.36928   0.00000  Uiso   1.00
Si130  Si    0.81362   0.90520   0.33985   0.00000  Uiso   1.00
Si131  Si    0.85769   0.99910   0.36867   0.00000  Uiso   1.00
Si132  Si    0.95377   0.90438   0.34364   0.00000  Uiso   1.00
Si133  Si    0.00115   0.99912   0.36727   0.00000  Uiso   1.00
Si134  Si    0.09496   0.90528   0.33983   0.00000  Uiso   1.00
Si135  Si    0.28606   0.14148   0.51498   0.00000  Uiso   1.00
Si136  Si    0.57270   0.42751   0.51448   0.00000  Uiso   1.00
Si137  Si    0.85876   0.71419   0.51498   0.00000  Uiso   1.00
Si138  Si    0.85869   0.14154   0.51499   0.00000  Uiso   1.00
Si139  Si    0.57271   0.14202   0.51443   0.00000  Uiso   1.00
Si140  Si    0.85818   0.42750   0.51444   0.00000  Uiso   1.00
Si141  Si    0.42935   0.85534   0.51190   0.00000  Uiso   1.00
Si142  Si    0.71563   0.85635   0.51356   0.00000  Uiso   1.00
Si143  Si    0.14392   0.28464   0.51352   0.00000  Uiso   1.00
Si144  Si    0.14487   0.57084   0.51190   0.00000  Uiso   1.00
Si145  Si    0.42941   0.57089   0.51182   0.00000  Uiso   1.00
Si146  Si    0.14400   0.85624   0.51357   0.00000  Uiso   1.00
Si147  Si    0.09967   0.90059   0.47013   0.00000  Uiso   1.00
Si148  Si    0.09601   0.76720   0.46992   0.00000  Uiso   1.00
Si149  Si    0.14436   0.85595   0.43151   0.00000  Uiso   1.00
Si150  Si    0.09736   0.61247   0.46905   0.00000  Uiso   1.00
Si151  Si    0.14385   0.71405   0.45007   0.00000  Uiso   1.00
Si152  Si    0.09731   0.48173   0.46905   0.00000  Uiso   1.00
Si153  Si    0.14535   0.57110   0.43030   0.00000  Uiso   1.00
Si154  Si    0.09598   0.32575   0.46985   0.00000  Uiso   1.00
Si155  Si    0.14384   0.42670   0.45001   0.00000  Uiso   1.00
Si156  Si    0.09958   0.19594   0.47012   0.00000  Uiso   1.00
Si157  Si    0.14431   0.28527   0.43146   0.00000  Uiso   1.00
Si158  Si    0.23311   0.90432   0.46993   0.00000  Uiso   1.00
Si159  Si    0.23751   0.76274   0.48206   0.00000  Uiso   1.00
Si160  Si    0.28619   0.85641   0.45006   0.00000  Uiso   1.00
Si161  Si    0.23459   0.61572   0.46826   0.00000  Uiso   1.00
Si162  Si    0.28392   0.71634   0.45014   0.00000  Uiso   1.00
Si163  Si    0.23752   0.47166   0.48198   0.00000  Uiso   1.00
Si164  Si    0.28398   0.56452   0.45010   0.00000  Uiso   1.00
Si165  Si    0.23304   0.32569   0.46992   0.00000  Uiso   1.00
Si166  Si    0.28620   0.42663   0.45004   0.00000  Uiso   1.00
Si167  Si    0.38775   0.90288   0.46905   0.00000  Uiso   1.00
Si168  Si    0.38455   0.76571   0.46822   0.00000  Uiso   1.00
Si169  Si    0.42919   0.85496   0.43030   0.00000  Uiso   1.00
Si170  Si    0.38462   0.61568   0.46816   0.00000  Uiso   1.00
Si171  Si    0.43578   0.71632   0.45015   0.00000  Uiso   1.00
Si172  Si    0.38778   0.48167   0.46906   0.00000  Uiso   1.00
Si173  Si    0.42928   0.57104   0.43026   0.00000  Uiso   1.00
Si174  Si    0.51854   0.90294   0.46908   0.00000  Uiso   1.00
Si175  Si    0.52866   0.76278   0.48200   0.00000  Uiso   1.00
Si176  Si    0.57358   0.85644   0.45002   0.00000  Uiso   1.00
Si177  Si    0.51862   0.61252   0.46907   0.00000  Uiso   1.00
Si178  Si    0.57364   0.71406   0.45005   0.00000  Uiso   1.00
Si179  Si    0.67459   0.90427   0.46982   0.00000  Uiso   1.00
Si180  Si    0.67457   0.76716   0.47004   0.00000  Uiso   1.00
Si181  Si    0.71499   0.85584   0.43149   0.00000  Uiso   1.00
Si182  Si    0.80432   0.90064   0.47009   0.00000  Uiso   1.00
Si183  Si    0.83516   0.83323   0.44454   0.00000  Uiso   1.00
Si184  Si    0.74405   0.74229   0.44478   0.00000  Uiso   1.00
Si185  Si    0.54605   0.54436   0.44424   0.00000  Uiso   1.00
Si186  Si    0.45595   0.45427   0.44423   0.00000  Uiso   1.00
Si187  Si    0.25792   0.25618   0.44478   0.00000  Uiso   1.00
Si188  Si    0.16697   0.16508   0.44454   0.00000  Uiso   1.00
Si189  Si    0.00144   0.83325   0.44450   0.00000  Uiso   1.00
Si190  Si    0.00164   0.74233   0.44473   0.00000  Uiso   1.00
Si191  Si    0.00175   0.54438   0.44421   0.00000  Uiso   1.00
Si192  Si    0.00174   0.45428   0.44418   0.00000  Uiso   1.00
Si193  Si    0.00157   0.25625   0.44478   0.00000  Uiso   1.00
Si194  Si    0.00137   0.16512   0.44456   0.00000  Uiso   1.00
Si195  Si    0.83513  -0.00116   0.44454   0.00000  Uiso   1.00
Si196  Si    0.74405  -0.00130   0.44475   0.00000  Uiso   1.00
Si197  Si    0.54598   0.99849   0.44420   0.00000  Uiso   1.00
Si198  Si    0.45587  -0.00151   0.44421   0.00000  Uiso   1.00
Si199  Si    0.25789  -0.00134   0.44473   0.00000  Uiso   1.00
Si200  Si    0.16696  -0.00117   0.44449   0.00000  Uiso   1.00
Si201  Si    0.09602   0.04752   0.26255   0.00000  Uiso   1.00
Si202  Si    0.04840   0.09514   0.23700   0.00000  Uiso   1.00
Si203  Si    0.23888   0.04752   0.26255   0.00000  Uiso   1.00
Si204  Si    0.19126   0.09514   0.23700   0.00000  Uiso   1.00
Si205  Si    0.38173   0.04752   0.26255   0.00000  Uiso   1.00
Si206  Si    0.33411   0.09514   0.23700   0.00000  Uiso   1.00
Si207  Si    0.52459   0.04752   0.26255   0.00000  Uiso   1.00
Si208  Si    0.47697   0.09514   0.23700   0.00000  Uiso   1.00
Si209  Si    0.66745   0.04752   0.26255   0.00000  Uiso   1.00
Si210  Si    0.61983   0.09514   0.23700   0.00000  Uiso   1.00
Si211  Si    0.81030   0.04752   0.26255   0.00000  Uiso   1.00
Si212  Si    0.76269   0.09514   0.23700   0.00000  Uiso   1.00
Si213  Si    0.95316   0.04752   0.26255   0.00000  Uiso   1.00
Si214  Si    0.90554   0.09514   0.23700   0.00000  Uiso   1.00
Si215  Si    0.09602   0.19038   0.26255   0.00000  Uiso   1.00
Si216  Si    0.04840   0.23800   0.23700   0.00000  Uiso   1.00
Si217  Si    0.23888   0.19038   0.26255   0.00000  Uiso   1.00
Si218  Si    0.19126   0.23800   0.23700   0.00000  Uiso   1.00
Si219  Si    0.38173   0.19038   0.26255   0.00000  Uiso   1.00
Si220  Si    0.33411   0.23800   0.23700   0.00000  Uiso   1.00
Si221  Si    0.52459   0.19038   0.26255   0.00000  Uiso   1.00
Si222  Si    0.47697   0.23800   0.23700   0.00000  Uiso   1.00
Si223  Si    0.66745   0.19038   0.26255   0.00000  Uiso   1.00
Si224  Si    0.61983   0.23800   0.23700   0.00000  Uiso   1.00
Si225  Si    0.81030   0.19038   0.26255   0.00000  Uiso   1.00
Si226  Si    0.76269   0.23800   0.23700   0.00000  Uiso   1.00
Si227  Si    0.95316   0.19038   0.26255   0.00000  Uiso   1.00
Si228  Si    0.90554   0.23800   0.23700   0.00000  Uiso   1.00
Si229  Si    0.09602   0.33324   0.26255   0.00000  Uiso   1.00
Si230  Si    0.04840   0.38086   0.23700   0.00000  Uiso   1.00
Si231  Si    0.23888   0.33324   0.26255   0.00000  Uiso   1.00
Si232  Si    0.19126   0.38086   0.23700   0.00000  Uiso   1.00
Si233  Si    0.38173   0.33324   0.26255   0.00000  Uiso   1.00
Si234  Si    0.33411   0.38086   0.23700   0.00000  Uiso   1.00
Si235  Si    0.52459   0.33324   0.26255   0.00000  Uiso   1.00
Si236  Si    0.47697   0.38086   0.23700   0.00000  Uiso   1.00
Si237  Si    0.66745   0.33324   0.26255   0.00000  Uiso   1.00
Si238  Si    0.61983   0.38086   0.23700   0.00000  Uiso   1.00
Si239  Si    0.81030   0.33324   0.26255   0.00000  Uiso   1.00
Si240  Si    0.76269   0.38086   0.23700   0.00000  Uiso   1.00
Si241  Si    0.95316   0.33324   0.26255   0.00000  Uiso   1.00
Si242  Si    0.90554   0.38086   0.23700   0.00000  Uiso   1.00
Si243  Si    0.09602   0.47609   0.26255   0.00000  Uiso   1.00
Si244  Si    0.04840   0.52371   0.23700   0.00000  Uiso   1.00
Si245  Si    0.23888   0.47609   0.26255   0.00000  Uiso   1.00
Si246  Si    0.19126   0.52371   0.23700   0.00000  Uiso   1.00
Si247  Si    0.38173   0.47609   0.26255   0.00000  Uiso   1.00
Si248  Si    0.33411   0.52371   0.23700   0.00000  Uiso   1.00
Si249  Si    0.52459   0.47609   0.26255   0.00000  Uiso   1.00
Si250  Si    0.47697   0.52371   0.23700   0.00000  Uiso   1.00
Si251  Si    0.66745   0.47609   0.26255   0.00000  Uiso   1.00
Si252  Si    0.61983   0.52371   0.23700   0.00000  Uiso   1.00
Si253  Si    0.81030   0.47609   0.26255   0.00000  Uiso   1.00
Si254  Si    0.76269   0.52371   0.23700   0.00000  Uiso   1.00
Si255  Si    0.95316   0.47609   0.26255   0.00000  Uiso   1.00
Si256  Si    0.90554   0.52371   0.23700   0.00000  Uiso   1.00
Si257  Si    0.09602   0.61895   0.26255   0.00000  Uiso   1.00
Si258  Si    0.04840   0.66657   0.23700   0.00000  Uiso   1.00
Si259  Si    0.23888   0.61895   0.26255   0.00000  Uiso   1.00
Si260  Si    0.19126   0.66657   0.23700   0.00000  Uiso   1.00
Si261  Si    0.38173   0.61895   0.26255   0.00000  Uiso   1.00
Si262  Si    0.33411   0.66657   0.23700   0.00000  Uiso   1.00
Si263  Si    0.52459   0.61895   0.26255   0.00000  Uiso   1.00
Si264  Si    0.47697   0.66657   0.23700   0.00000  Uiso   1.00
Si265  Si    0.66745   0.61895   0.26255   0.00000  Uiso   1.00
Si266  Si    0.61983   0.66657   0.23700   0.00000  Uiso   1.00
Si267  Si    0.81030   0.61895   0.26255   0.00000  Uiso   1.00
Si268  Si    0.76269   0.66657   0.23700   0.00000  Uiso   1.00
Si269  Si    0.95316   0.61895   0.26255   0.00000  Uiso   1.00
Si270  Si    0.90554   0.66657   0.23700   0.00000  Uiso   1.00
Si271  Si    0.09602   0.76181   0.26255   0.00000  Uiso   1.00
Si272  Si    0.04840   0.80943   0.23700   0.00000  Uiso   1.00
Si273  Si    0.23888   0.76181   0.26255   0.00000  Uiso   1.00
Si274  Si    0.19126   0.80943   0.23700   0.00000  Uiso   1.00
Si275  Si    0.38173   0.76181   0.26255   0.00000  Uiso   1.00
Si276  Si    0.33411   0.80943   0.23700   0.00000  Uiso   1.00
Si277  Si    0.52459   0.76181   0.26255   0.00000  Uiso   1.00
Si278  Si    0.47697   0.80943   0.23700   0.00000  Uiso   1.00
Si279  Si    0.66745   0.76181   0.26255   0.00000  Uiso   1.00
Si280  Si    0.61983   0.80943   0.23700   0.00000  Uiso   1.00
Si281  Si    0.81030   0.76181   0.26255   0.00000  Uiso   1.00
Si282  Si    0.76269   0.80943   0.23700   0.00000  Uiso   1.00
Si283  Si    0.95316   0.76181   0.26255   0.00000  Uiso   1.00
Si284  Si    0.90554   0.80943   0.23700   0.00000  Uiso   1.00
Si285  Si    0.09602   0.90467   0.26255   0.00000  Uiso   1.00
Si286  Si    0.04840   0.95228   0.23700   0.00000  Uiso   1.00
Si287  Si    0.23888   0.90467   0.26255   0.00000  Uiso   1.00
Si288  Si    0.19126   0.95228   0.23700   0.00000  Uiso   1.00
Si289  Si    0.38173   0.90467   0.26255   0.00000  Uiso   1.00
Si290  Si    0.33411   0.95228   0.23700   0.00000  Uiso   1.00
Si291  Si    0.52459   0.90467   0.26255   0.00000  Uiso   1.00
Si292  Si    0.47697   0.95228   0.23700   0.00000  Uiso   1.00
Si293  Si    0.66745   0.90467   0.26255   0.00000  Uiso   1.00
Si294  Si    0.61983   0.95228   0.23700   0.00000  Uiso   1.00
Si295  Si    0.81030   0.90467   0.26255   0.00000  Uiso   1.00
Si296  Si    0.76269   0.95228   0.23700   0.00000  Uiso   1.00
Si297  Si    0.95316   0.90467   0.26255   0.00000  Uiso   1.00
Si298  Si    0.90554   0.95228   0.23700   0.00000  Uiso   1.00
loop_
_geom_bond_atom_site_label_1
_geom_bond_atom_site_label_2
_geom_bond_distance
_geom_bond_site_symmetry_2
_ccdc_geom_bond_type
Si1    Si7     2.385   .     S
Si1    Si135   2.476   .     S
Si1    Si188   2.472   .     S
Si1    Si200   2.473   .     S
Si2    Si25    2.364   .     S
Si2    Si27    2.350   .     S
Si2    Si48    2.358   .     S
Si2    Si188   2.404   .     S
Si3    Si5     2.335   .     S
Si3    Si121   2.349   1_545 S
Si3    Si123   2.346   1_545 S
Si3    Si203   2.343   .     S
Si4    Si7     2.370   .     S
Si4    Si11    2.427   .     S
Si4    Si135   2.489   .     S
Si4    Si199   2.405   .     S
Si5    Si7     2.338   .     S
Si5    Si27    2.334   .     S
Si5    Si30    2.334   .     S
Si6    Si9     2.358   .     S
Si6    Si123   2.380   1_545 S
Si6    Si125   2.376   1_545 S
Si6    Si205   2.474   .     S
Si7    Si28    2.370   .     S
Si7    Si135   2.563   .     S
Si8    Si11    2.440   .     S
Si8    Si15    2.382   .     S
Si8    Si139   2.486   .     S
Si8    Si198   2.418   .     S
Si9    Si11    2.440   .     S
Si9    Si30    2.367   .     S
Si9    Si33    2.367   .     S
Si10   Si13    2.333   .     S
Si10   Si125   2.351   1_545 S
Si10   Si127   2.351   1_545 S
Si10   Si207   2.339   .     S
Si11   Si31    2.373   .     S
Si12   Si15    2.381   .     S
Si12   Si19    2.440   .     S
Si12   Si139   2.485   .     S
Si12   Si197   2.418   1_545 S
Si13   Si15    2.331   .     S
Si13   Si33    2.337   .     S
Si13   Si37    2.337   .     S
Si14   Si17    2.358   .     S
Si14   Si127   2.376   1_545 S
Si14   Si129   2.381   1_545 S
Si14   Si209   2.474   .     S
Si15   Si35    2.369   .     S
Si15   Si139   2.567   .     S
Si16   Si19    2.426   .     S
Si16   Si23    2.371   .     S
Si16   Si138   2.488   .     S
Si16   Si196   2.404   .     S
Si17   Si19    2.440   .     S
Si17   Si37    2.368   .     S
Si17   Si41    2.365   .     S
Si18   Si21    2.335   .     S
Si18   Si129   2.346   1_545 S
Si18   Si131   2.350   1_545 S
Si18   Si211   2.343   .     S
Si19   Si39    2.373   .     S
Si20   Si23    2.385   .     S
Si20   Si138   2.476   .     S
Si20   Si194   2.472   1_655 S
Si20   Si195   2.472   .     S
Si21   Si23    2.338   .     S
Si21   Si41    2.334   .     S
Si21   Si45    2.335   .     S
Si22   Si24    2.365   1_655 S
Si22   Si131   2.365   1_545 S
Si22   Si133   2.322   1_645 S
Si22   Si213   2.486   .     S
Si23   Si43    2.371   .     S
Si23   Si138   2.565   .     S
Si24   Si22    2.365   1_455 S
Si24   Si45    2.350   1_455 S
Si24   Si48    2.359   .     S
Si24   Si194   2.404   .     S
Si25   Si121   2.365   1_545 S
Si25   Si133   2.321   1_545 S
Si25   Si201   2.486   .     S
Si26   Si48    2.336   .     S
Si26   Si50    2.331   .     S
Si26   Si69    2.331   .     S
Si26   Si157   2.345   .     S
Si27   Si29    2.346   .     S
Si27   Si217   2.342   .     S
Si28   Si34    2.427   .     S
Si28   Si135   2.489   .     S
Si28   Si187   2.404   .     S
Si29   Si50    2.361   .     S
Si29   Si52    2.380   .     S
Si29   Si187   2.427   .     S
Si30   Si32    2.365   .     S
Si30   Si219   2.402   .     S
Si31   Si34    2.374   .     S
Si31   Si38    2.357   .     S
Si32   Si34    2.440   .     S
Si32   Si52    2.358   .     S
Si32   Si55    2.367   .     S
Si33   Si36    2.364   .     S
Si33   Si221   2.397   .     S
Si34   Si53    2.440   .     S
Si35   Si38    2.408   .     S
Si35   Si42    2.407   .     S
Si35   Si139   2.508   .     S
Si36   Si38    2.442   .     S
Si36   Si55    2.365   .     S
Si36   Si58    2.369   .     S
Si37   Si40    2.364   .     S
Si37   Si223   2.398   .     S
Si38   Si56    2.407   .     S
Si39   Si42    2.357   .     S
Si39   Si46    2.373   .     S
Si40   Si42    2.441   .     S
Si40   Si58    2.369   .     S
Si40   Si62    2.365   .     S
Si41   Si44    2.365   .     S
Si41   Si225   2.401   .     S
Si42   Si60    2.407   .     S
Si43   Si46    2.426   .     S
Si43   Si138   2.489   .     S
Si43   Si193   2.404   1_655 S
Si44   Si46    2.440   .     S
Si44   Si62    2.368   .     S
Si44   Si66    2.358   .     S
Si45   Si24    2.350   1_655 S
Si45   Si47    2.346   1_655 S
Si45   Si227   2.343   .     S
Si46   Si64    2.440   .     S
Si47   Si45    2.346   1_455 S
Si47   Si66    2.381   1_455 S
Si47   Si69    2.361   .     S
Si47   Si193   2.427   .     S
Si48   Si215   2.373   .     S
Si49   Si69    2.358   .     S
Si49   Si71    2.361   .     S
Si49   Si88    2.362   .     S
Si49   Si155   2.457   .     S
Si50   Si51    2.357   .     S
Si50   Si231   2.379   .     S
Si51   Si71    2.361   .     S
Si51   Si73    2.362   .     S
Si51   Si166   2.457   .     S
Si52   Si54    2.376   .     S
Si52   Si233   2.473   .     S
Si53   Si59    2.381   .     S
Si53   Si136   2.486   .     S
Si53   Si186   2.418   .     S
Si54   Si73    2.362   .     S
Si54   Si75    2.351   .     S
Si54   Si186   2.416   .     S
Si55   Si57    2.337   .     S
Si55   Si235   2.399   .     S
Si56   Si59    2.369   .     S
Si56   Si63    2.407   .     S
Si56   Si136   2.508   .     S
Si57   Si59    2.331   .     S
Si57   Si75    2.333   .     S
Si57   Si78    2.336   .     S
Si58   Si61    2.369   .     S
Si58   Si237   2.450   .     S
Si59   Si76    2.382   .     S
Si59   Si136   2.566   .     S
Si60   Si63    2.407   .     S
Si60   Si67    2.369   .     S
Si60   Si140   2.508   .     S
Si61   Si63    2.442   .     S
Si61   Si78    2.365   .     S
Si61   Si81    2.364   .     S
Si62   Si65    2.337   .     S
Si62   Si239   2.399   .     S
Si63   Si79    2.357   .     S
Si64   Si67    2.381   .     S
Si64   Si140   2.485   .     S
Si64   Si192   2.417   1_655 S
Si65   Si67    2.331   .     S
Si65   Si81    2.337   .     S
Si65   Si85    2.333   .     S
Si66   Si47    2.381   1_655 S
Si66   Si68    2.375   1_655 S
Si66   Si241   2.474   .     S
Si67   Si83    2.381   .     S
Si67   Si140   2.567   .     S
Si68   Si66    2.375   1_455 S
Si68   Si85    2.351   1_455 S
Si68   Si88    2.361   .     S
Si68   Si192   2.415   .     S
Si69   Si229   2.377   .     S
Si70   Si88    2.337   .     S
Si70   Si90    2.335   .     S
Si70   Si105   2.337   .     S
Si70   Si153   2.340   .     S
Si71   Si72    2.358   .     S
Si71   Si245   2.436   .     S
Si72   Si90    2.365   .     S
Si72   Si92    2.365   .     S
Si72   Si164   2.466   .     S
Si73   Si74    2.336   .     S
Si73   Si247   2.378   .     S
Si74   Si92    2.334   .     S
Si74   Si94    2.336   .     S
Si74   Si173   2.340   .     S
Si75   Si77    2.351   .     S
Si75   Si249   2.338   .     S
Si76   Si82    2.440   .     S
Si76   Si136   2.486   .     S
Si76   Si185   2.418   .     S
Si77   Si94    2.362   .     S
Si77   Si96    2.376   .     S
Si77   Si185   2.415   .     S
Si78   Si80    2.367   .     S
Si78   Si251   2.398   .     S
Si79   Si82    2.374   .     S
Si79   Si86    2.373   .     S
Si80   Si82    2.440   .     S
Si80   Si96    2.358   .     S
Si80   Si99    2.365   .     S
Si81   Si84    2.367   .     S
Si81   Si253   2.397   .     S
Si82   Si97    2.427   .     S
Si83   Si86    2.440   .     S
Si83   Si140   2.486   .     S
Si83   Si191   2.417   1_655 S
Si84   Si86    2.440   .     S
Si84   Si99    2.366   .     S
Si84   Si102   2.357   .     S
Si85   Si68    2.351   1_655 S
Si85   Si87    2.351   1_655 S
Si85   Si255   2.339   .     S
Si86   Si100   2.427   .     S
Si87   Si85    2.351   1_455 S
Si87   Si102   2.376   1_455 S
Si87   Si105   2.362   .     S
Si87   Si191   2.416   .     S
Si88   Si243   2.378   .     S
Si89   Si105   2.362   .     S
Si89   Si107   2.361   .     S
Si89   Si120   2.358   .     S
Si89   Si151   2.458   .     S
Si90   Si91    2.366   .     S
Si90   Si259   2.391   .     S
Si91   Si107   2.358   .     S
Si91   Si109   2.366   .     S
Si91   Si162   2.465   .     S
Si92   Si93    2.365   .     S
Si92   Si261   2.389   .     S
Si93   Si109   2.366   .     S
Si93   Si111   2.358   .     S
Si93   Si171   2.467   .     S
Si94   Si95    2.362   .     S
Si94   Si263   2.378   .     S
Si95   Si111   2.361   .     S
Si95   Si113   2.357   .     S
Si95   Si178   2.457   .     S
Si96   Si98    2.380   .     S
Si96   Si265   2.473   .     S
Si97   Si103   2.370   .     S
Si97   Si137   2.489   .     S
Si97   Si184   2.404   .     S
Si98   Si113   2.362   .     S
Si98   Si115   2.346   .     S
Si98   Si184   2.426   .     S
Si99   Si101   2.334   .     S
Si99   Si267   2.402   .     S
Si100  Si103   2.371   .     S
Si100  Si137   2.490   .     S
Si100  Si190   2.404   1_655 S
Si101  Si103   2.337   .     S
Si101  Si115   2.334   .     S
Si101  Si118   2.335   .     S
Si102  Si87    2.376   1_655 S
Si102  Si104   2.380   1_655 S
Si102  Si269   2.473   .     S
Si103  Si116   2.384   .     S
Si103  Si137   2.563   .     S
Si104  Si102   2.380   1_455 S
Si104  Si118   2.346   1_455 S
Si104  Si120   2.360   .     S
Si104  Si190   2.426   .     S
Si105  Si257   2.376   .     S
Si106  Si120   2.331   .     S
Si106  Si122   2.331   .     S
Si106  Si134   2.336   .     S
Si106  Si149   2.344   .     S
Si107  Si108   2.360   .     S
Si107  Si273   2.436   .     S
Si108  Si122   2.358   .     S
Si108  Si124   2.361   .     S
Si108  Si160   2.457   .     S
Si109  Si110   2.335   .     S
Si109  Si275   2.392   .     S
Si110  Si124   2.337   .     S
Si110  Si126   2.337   .     S
Si110  Si169   2.340   .     S
Si111  Si112   2.361   .     S
Si111  Si277   2.436   .     S
Si112  Si126   2.362   .     S
Si112  Si128   2.358   .     S
Si112  Si176   2.458   .     S
Si113  Si114   2.331   .     S
Si113  Si279   2.380   .     S
Si114  Si128   2.331   .     S
Si114  Si130   2.336   .     S
Si114  Si181   2.344   .     S
Si115  Si117   2.350   .     S
Si115  Si281   2.342   .     S
Si116  Si137   2.476   .     S
Si116  Si183   2.472   .     S
Si116  Si189   2.472   1_655 S
Si117  Si130   2.359   .     S
Si117  Si132   2.364   .     S
Si117  Si183   2.403   .     S
Si118  Si104   2.346   1_655 S
Si118  Si119   2.349   1_655 S
Si118  Si283   2.342   .     S
Si119  Si118   2.349   1_455 S
Si119  Si132   2.365   1_455 S
Si119  Si134   2.359   .     S
Si119  Si189   2.405   .     S
Si120  Si271   2.379   .     S
Si121  Si25    2.365   1_565 S
Si121  Si3     2.349   1_565 S
Si121  Si134   2.359   .     S
Si121  Si200   2.404   1_565 S
Si122  Si123   2.360   .     S
Si122  Si287   2.378   .     S
Si123  Si3     2.346   1_565 S
Si123  Si6     2.380   1_565 S
Si123  Si199   2.426   1_565 S
Si124  Si125   2.362   .     S
Si124  Si289   2.376   .     S
Si125  Si6     2.376   1_565 S
Si125  Si10    2.351   1_565 S
Si125  Si198   2.416   1_565 S
Si126  Si127   2.362   .     S
Si126  Si291   2.378   .     S
Si127  Si10    2.351   1_565 S
Si127  Si14    2.376   1_565 S
Si127  Si197   2.416   .     S
Si128  Si129   2.361   .     S
Si128  Si293   2.377   .     S
Si129  Si14    2.381   1_565 S
Si129  Si18    2.346   1_565 S
Si129  Si196   2.427   1_565 S
Si130  Si131   2.359   .     S
Si130  Si295   2.373   .     S
Si131  Si18    2.350   1_565 S
Si131  Si22    2.365   1_565 S
Si131  Si195   2.404   1_565 S
Si132  Si119   2.365   1_655 S
Si132  Si133   2.321   1_655 S
Si132  Si297   2.488   .     S
Si133  Si22    2.322   1_465 S
Si133  Si25    2.321   1_565 S
Si133  Si132   2.321   1_455 S
Si134  Si285   2.371   .     S
Si141  Si167   2.457   .     S
Si141  Si168   2.479   .     S
Si141  Si169   2.503   .     S
Si141  Si174   2.458   .     S
Si142  Si179   2.469   .     S
Si142  Si180   2.470   .     S
Si142  Si181   2.518   .     S
Si142  Si182   2.458   .     S
Si143  Si154   2.470   .     S
Si143  Si156   2.457   .     S
Si143  Si157   2.517   .     S
Si143  Si165   2.470   .     S
Si144  Si150   2.457   .     S
Si144  Si152   2.457   .     S
Si144  Si153   2.503   .     S
Si144  Si161   2.481   .     S
Si145  Si170   2.478   .     S
Si145  Si172   2.458   .     S
Si145  Si173   2.502   .     S
Si145  Si177   2.457   .     S
Si146  Si147   2.457   .     S
Si146  Si148   2.469   .     S
Si146  Si149   2.517   .     S
Si146  Si158   2.470   .     S
Si147  Si149   2.393   .     S
Si147  Si189   2.467   .     S
Si147  Si200   2.467   1_565 S
Si148  Si149   2.381   .     S
Si148  Si151   2.429   .     S
Si148  Si190   2.405   .     S
Si149  Si158   2.381   .     S
Si150  Si151   2.438   .     S
Si150  Si153   2.397   .     S
Si150  Si191   2.415   .     S
Si151  Si159   2.391   .     S
Si152  Si153   2.398   .     S
Si152  Si155   2.438   .     S
Si152  Si192   2.414   .     S
Si153  Si161   2.381   .     S
Si154  Si155   2.428   .     S
Si154  Si157   2.381   .     S
Si154  Si193   2.404   .     S
Si155  Si163   2.391   .     S
Si156  Si157   2.394   .     S
Si156  Si188   2.467   .     S
Si156  Si194   2.466   .     S
Si157  Si165   2.381   .     S
Si158  Si160   2.429   .     S
Si158  Si199   2.404   1_565 S
Si159  Si160   2.392   .     S
Si159  Si162   2.372   .     S
Si160  Si167   2.437   .     S
Si161  Si162   2.407   .     S
Si161  Si164   2.407   .     S
Si162  Si168   2.407   .     S
Si163  Si164   2.372   .     S
Si163  Si166   2.392   .     S
Si164  Si170   2.407   .     S
Si165  Si166   2.428   .     S
Si165  Si187   2.404   .     S
Si166  Si172   2.438   .     S
Si167  Si169   2.397   .     S
Si167  Si198   2.415   1_565 S
Si168  Si169   2.381   .     S
Si168  Si171   2.407   .     S
Si169  Si174   2.398   .     S
Si170  Si171   2.407   .     S
Si170  Si173   2.382   .     S
Si171  Si175   2.372   .     S
Si172  Si173   2.398   .     S
Si172  Si186   2.414   .     S
Si173  Si177   2.398   .     S
Si174  Si176   2.437   .     S
Si174  Si197   2.414   .     S
Si175  Si176   2.391   .     S
Si175  Si178   2.392   .     S
Si176  Si179   2.429   .     S
Si177  Si178   2.437   .     S
Si177  Si185   2.415   .     S
Si178  Si180   2.429   .     S
Si179  Si181   2.381   .     S
Si179  Si196   2.404   1_565 S
Si180  Si181   2.381   .     S
Si180  Si184   2.405   .     S
Si181  Si182   2.393   .     S
Si182  Si183   2.467   .     S
Si182  Si195   2.466   1_565 S
Si183  Si184   2.447   .     S
Si185  Si186   2.421   .     S
Si187  Si188   2.447   .     S
Si189  Si116   2.472   1_455 S
Si189  Si190   2.446   .     S
Si190  Si100   2.404   1_455 S
Si191  Si83    2.417   1_455 S
Si191  Si192   2.421   .     S
Si192  Si64    2.417   1_455 S
Si193  Si43    2.404   1_455 S
Si193  Si194   2.447   .     S
Si194  Si20    2.472   1_455 S
Si195  Si131   2.404   1_545 S
Si195  Si182   2.466   1_545 S
Si195  Si196   2.446   .     S
Si196  Si129   2.427   1_545 S
Si196  Si179   2.404   1_545 S
Si197  Si12    2.418   1_565 S
Si197  Si198   2.422   1_565 S
Si198  Si125   2.416   1_545 S
Si198  Si197   2.422   1_545 S
Si198  Si167   2.415   1_545 S
Si199  Si123   2.426   1_545 S
Si199  Si158   2.404   1_545 S
Si199  Si200   2.446   .     S
Si200  Si121   2.404   1_545 S
Si200  Si147   2.467   1_545 S
Si201  Si202   2.351   .     S
Si201  Si204   2.351   .     S
Si201  Si286   2.351   1_545 S
Si202  Si213   2.351   1_455 S
Si202  Si215   2.351   .     S
Si203  Si204   2.351   .     S
Si203  Si206   2.351   .     S
Si203  Si288   2.351   1_545 S
Si204  Si217   2.351   .     S
Si205  Si206   2.351   .     S
Si205  Si208   2.351   .     S
Si205  Si290   2.351   1_545 S
Si206  Si219   2.351   .     S
Si207  Si208   2.351   .     S
Si207  Si210   2.351   .     S
Si207  Si292   2.351   1_545 S
Si208  Si221   2.351   .     S
Si209  Si210   2.351   .     S
Si209  Si212   2.351   .     S
Si209  Si294   2.351   1_545 S
Si210  Si223   2.351   .     S
Si211  Si212   2.351   .     S
Si211  Si214   2.351   .     S
Si211  Si296   2.351   1_545 S
Si212  Si225   2.351   .     S
Si213  Si202   2.351   1_655 S
Si213  Si214   2.351   .     S
Si213  Si298   2.351   1_545 S
Si214  Si227   2.351   .     S
Si215  Si216   2.351   .     S
Si215  Si218   2.351   .     S
Si216  Si227   2.351   1_455 S
Si216  Si229   2.351   .     S
Si217  Si218   2.351   .     S
Si217  Si220   2.351   .     S
Si218  Si231   2.351   .     S
Si219  Si220   2.351   .     S
Si219  Si222   2.351   .     S
Si220  Si233   2.351   .     S
Si221  Si222   2.351   .     S
Si221  Si224   2.351   .     S
Si222  Si235   2.351   .     S
Si223  Si224   2.351   .     S
Si223  Si226   2.351   .     S
Si224  Si237   2.351   .     S
Si225  Si226   2.351   .     S
Si225  Si228   2.351   .     S
Si226  Si239   2.351   .     S
Si227  Si216   2.351   1_655 S
Si227  Si228   2.351   .     S
Si228  Si241   2.351   .     S
Si229  Si230   2.351   .     S
Si229  Si232   2.351   .     S
Si230  Si241   2.351   1_455 S
Si230  Si243   2.351   .     S
Si231  Si232   2.351   .     S
Si231  Si234   2.351   .     S
Si232  Si245   2.351   .     S
Si233  Si234   2.351   .     S
Si233  Si236   2.351   .     S
Si234  Si247   2.351   .     S
Si235  Si236   2.351   .     S
Si235  Si238   2.351   .     S
Si236  Si249   2.351   .     S
Si237  Si238   2.351   .     S
Si237  Si240   2.351   .     S
Si238  Si251   2.351   .     S
Si239  Si240   2.351   .     S
Si239  Si242   2.351   .     S
Si240  Si253   2.351   .     S
Si241  Si230   2.351   1_655 S
Si241  Si242   2.351   .     S
Si242  Si255   2.351   .     S
Si243  Si244   2.351   .     S
Si243  Si246   2.351   .     S
Si244  Si255   2.351   1_455 S
Si244  Si257   2.351   .     S
Si245  Si246   2.351   .     S
Si245  Si248   2.351   .     S
Si246  Si259   2.351   .     S
Si247  Si248   2.351   .     S
Si247  Si250   2.351   .     S
Si248  Si261   2.351   .     S
Si249  Si250   2.351   .     S
Si249  Si252   2.351   .     S
Si250  Si263   2.351   .     S
Si251  Si252   2.351   .     S
Si251  Si254   2.351   .     S
Si252  Si265   2.351   .     S
Si253  Si254   2.351   .     S
Si253  Si256   2.351   .     S
Si254  Si267   2.351   .     S
Si255  Si244   2.351   1_655 S
Si255  Si256   2.351   .     S
Si256  Si269   2.351   .     S
Si257  Si258   2.351   .     S
Si257  Si260   2.351   .     S
Si258  Si269   2.351   1_455 S
Si258  Si271   2.351   .     S
Si259  Si260   2.351   .     S
Si259  Si262   2.351   .     S
Si260  Si273   2.351   .     S
Si261  Si262   2.351   .     S
Si261  Si264   2.351   .     S
Si262  Si275   2.351   .     S
Si263  Si264   2.351   .     S
Si263  Si266   2.351   .     S
Si264  Si277   2.351   .     S
Si265  Si266   2.351   .     S
Si265  Si268   2.351   .     S
Si266  Si279   2.351   .     S
Si267  Si268   2.351   .     S
Si267  Si270   2.351   .     S
Si268  Si281   2.351   .     S
Si269  Si258   2.351   1_655 S
Si269  Si270   2.351   .     S
Si270  Si283   2.351   .     S
Si271  Si272   2.351   .     S
Si271  Si274   2.351   .     S
Si272  Si283   2.351   1_455 S
Si272  Si285   2.351   .     S
Si273  Si274   2.351   .     S
Si273  Si276   2.351   .     S
Si274  Si287   2.351   .     S
Si275  Si276   2.351   .     S
Si275  Si278   2.351   .     S
Si276  Si289   2.351   .     S
Si277  Si278   2.351   .     S
Si277  Si280   2.351   .     S
Si278  Si291   2.351   .     S
Si279  Si280   2.351   .     S
Si279  Si282   2.351   .     S
Si280  Si293   2.351   .     S
Si281  Si282   2.351   .     S
Si281  Si284   2.351   .     S
Si282  Si295   2.351   .     S
Si283  Si272   2.351   1_655 S
Si283  Si284   2.351   .     S
Si284  Si297   2.351   .     S
Si285  Si286   2.351   .     S
Si285  Si288   2.351   .     S
Si286  Si201   2.351   1_565 S
Si286  Si297   2.351   1_455 S
Si287  Si288   2.351   .     S
Si287  Si290   2.351   .     S
Si288  Si203   2.351   1_565 S
Si289  Si290   2.351   .     S
Si289  Si292   2.351   .     S
Si290  Si205   2.351   1_565 S
Si291  Si292   2.351   .     S
Si291  Si294   2.351   .     S
Si292  Si207   2.351   1_565 S
Si293  Si294   2.351   .     S
Si293  Si296   2.351   .     S
Si294  Si209   2.351   1_565 S
Si295  Si296   2.351   .     S
Si295  Si298   2.351   .     S
Si296  Si211   2.351   1_565 S
Si297  Si286   2.351   1_655 S
Si297  Si298   2.351   .     S
Si298  Si213   2.351   1_565 S
